30
agelastatin F
    C1	     1.0411040	     0.5935751	    -0.2235923	55.7928391	56.4193640	55.8000000
    N1	     0.9146972	    -0.8306841	     1.8353284	--	--	--
    C2	    -0.1053730	     1.3214563	     1.8897418	124.451004	125.844020	125.000000
    C3	     0.1860638	     0.0617945	     2.5893302	158.618805	158.043812	160.200000
    N2	     0.3632684	     1.5858805	     0.6155260	--	--	--
    C4	     0.8423596	    -0.8090422	     0.3943209	62.4714661	62.9713110	62.2000000
    C5	     0.1505853	     2.9125610	     0.3583251	106.236099	106.621275	108.700000
    C6	    -0.4975413	     3.4734497	     1.4432725	104.418335	104.347868	101.100000
    C7	    -0.6570481	     2.4675111	     2.4131830	119.301620	119.182089	117.100000
    C8	    -0.4932862	    -1.3095419	    -0.1974582	68.3797379	69.7532820	69.5000000
    C9	    -0.4545890	    -0.7959705	    -1.6532145	91.6117554	91.5509750	93.3000000
   C10	     0.4296603	     0.4626788	    -1.6404347	45.2946739	44.1140280	43.7000000
    N3	     0.1409193	    -1.9465257	    -2.3017889	--	--	--
   C11	    -0.0904998	    -3.1251890	    -1.5981205	157.757446	156.960066	162.800000
    N4	    -0.6083790	    -2.7358220	    -0.3705540	--	--	--
    O1	     0.1189845	    -4.2547218	    -1.9778745	--	--	--
    O2	    -0.1187192	    -0.1402744	     3.7504167	--	--	--
    O3	    -1.6980596	    -0.4457619	    -2.1974112	--	--	--
   Br1	     0.7965938	     3.7892143	    -1.1599504	--	--	--
   Br2	    -1.0307749	     5.2600827	     1.6079950	--	--	--
    H1	    -1.3430391	    -0.8841070	     0.3449297	3.40393066	3.64644843	--
    H2	     1.6416483	    -1.4454998	     0.0014602	3.59718704	3.63005682	--
    H3	     2.1012591	     0.8581995	    -0.2617688	4.53191233	4.57713596	--
    H4	     1.0818411	    -1.7184054	     2.2898941	--	4.08613392	--
    H5	    -1.0879856	     2.5625898	     3.3982925	6.95824289	6.98323390	--
    H6	     1.2238729	     0.3842392	    -2.3857566	2.66676784	2.71623409	--
    H7	    -0.1878597	     1.3212851	    -1.8982673	3.02969980	3.19087784	--
    H8	     0.1954279	    -1.9977733	    -3.3090576	--	3.33290223	--
    H9	    -0.5834792	    -3.3917081	     0.3949158	--	3.20940765	--
   H10	    -2.2716519	    -1.2234906	    -2.1516825	--	1.18924712	--
